data/networks/18Bus/cenario_EV.dss
! ==============================================
! cenario_EV.dss — generado automaticamente
! Penetracion EV/CS: 25.0%
! ==============================================

New Loadshape.CurvaEV_EV_0 npts=24 interval=1 mult=[0.05000 0.05000 0.05000 0.05000 0.05000 0.05000 0.10000 0.30000 0.80000 1.00000 0.90000 0.70000 0.50000 0.40000 0.30000 0.20000 0.10000 0.05000 0.05000 0.05000 0.05000 0.05000 0.05000 0.05000]
New Loadshape.CurvaEV_EV_1 npts=24 interval=1 mult=[0.05000 0.05000 0.05000 0.05000 0.05000 0.05000 0.10000 0.30000 0.80000 1.00000 0.90000 0.70000 0.50000 0.40000 0.30000 0.20000 0.10000 0.05000 0.05000 0.05000 0.05000 0.05000 0.05000 0.05000]
New Loadshape.CurvaEV_EV_2 npts=24 interval=1 mult=[0.15000 0.10000 0.08000 0.08000 0.10000 0.20000 0.50000 0.80000 1.00000 0.90000 0.70000 0.50000 0.40000 0.40000 0.45000 0.50000 0.60000 0.80000 1.00000 0.95000 0.80000 0.60000 0.40000 0.25000]
New Loadshape.CurvaEV_EV_3 npts=24 interval=1 mult=[0.15000 0.10000 0.08000 0.08000 0.10000 0.20000 0.50000 0.80000 1.00000 0.90000 0.70000 0.50000 0.40000 0.40000 0.45000 0.50000 0.60000 0.80000 1.00000 0.95000 0.80000 0.60000 0.40000 0.25000]
New Loadshape.CurvaEV_EV_4 npts=24 interval=1 mult=[0.15000 0.10000 0.08000 0.08000 0.10000 0.20000 0.50000 0.80000 1.00000 0.90000 0.70000 0.50000 0.40000 0.40000 0.45000 0.50000 0.60000 0.80000 1.00000 0.95000 0.80000 0.60000 0.40000 0.25000]
New Loadshape.CurvaEV_EV_5 npts=24 interval=1 mult=[0.60000 0.50000 0.40000 0.30000 0.20000 0.10000 0.05000 0.05000 0.05000 0.05000 0.05000 0.05000 0.05000 0.05000 0.05000 0.05000 0.10000 0.20000 0.70000 1.00000 0.90000 0.80000 0.80000 0.70000]
New Loadshape.CurvaEV_EV_6 npts=24 interval=1 mult=[0.05000 0.05000 0.05000 0.05000 0.05000 0.05000 0.10000 0.30000 0.80000 1.00000 0.90000 0.70000 0.50000 0.40000 0.30000 0.20000 0.10000 0.05000 0.05000 0.05000 0.05000 0.05000 0.05000 0.05000]
New Loadshape.CurvaEV_EV_7 npts=24 interval=1 mult=[0.15000 0.10000 0.08000 0.08000 0.10000 0.20000 0.50000 0.80000 1.00000 0.90000 0.70000 0.50000 0.40000 0.40000 0.45000 0.50000 0.60000 0.80000 1.00000 0.95000 0.80000 0.60000 0.40000 0.25000]
New Loadshape.CurvaEV_EV_8 npts=24 interval=1 mult=[0.60000 0.50000 0.40000 0.30000 0.20000 0.10000 0.05000 0.05000 0.05000 0.05000 0.05000 0.05000 0.05000 0.05000 0.05000 0.05000 0.10000 0.20000 0.70000 1.00000 0.90000 0.80000 0.80000 0.70000]
New Loadshape.CurvaEV_EV_9 npts=24 interval=1 mult=[0.60000 0.50000 0.40000 0.30000 0.20000 0.10000 0.05000 0.05000 0.05000 0.05000 0.05000 0.05000 0.05000 0.05000 0.05000 0.05000 0.10000 0.20000 0.70000 1.00000 0.90000 0.80000 0.80000 0.70000]
New Loadshape.CurvaEV_EV_10 npts=24 interval=1 mult=[0.15000 0.10000 0.08000 0.08000 0.10000 0.20000 0.50000 0.80000 1.00000 0.90000 0.70000 0.50000 0.40000 0.40000 0.45000 0.50000 0.60000 0.80000 1.00000 0.95000 0.80000 0.60000 0.40000 0.25000]

New Load.EV_0 bus1=b3 phases=3 conn=wye kv=13.800 kw=1200.00 pf=0.980 model=1 daily=CurvaEV_EV_0
New Load.EV_1 bus1=b11 phases=3 conn=wye kv=13.800 kw=600.00 pf=0.980 model=1 daily=CurvaEV_EV_1
New Load.EV_2 bus1=b3 phases=3 conn=wye kv=13.800 kw=1200.00 pf=0.980 model=1 daily=CurvaEV_EV_2
New Load.EV_3 bus1=b16 phases=3 conn=wye kv=13.800 kw=1200.00 pf=0.980 model=1 daily=CurvaEV_EV_3
New Load.EV_4 bus1=b3 phases=3 conn=wye kv=13.800 kw=1200.00 pf=0.980 model=1 daily=CurvaEV_EV_4
New Load.EV_5 bus1=b4 phases=3 conn=wye kv=13.800 kw=600.00 pf=0.980 model=1 daily=CurvaEV_EV_5
New Load.EV_6 bus1=b6 phases=3 conn=wye kv=13.800 kw=2400.00 pf=0.980 model=1 daily=CurvaEV_EV_6
New Load.EV_7 bus1=b14 phases=3 conn=wye kv=13.800 kw=600.00 pf=0.980 model=1 daily=CurvaEV_EV_7
New Load.EV_8 bus1=b3 phases=3 conn=wye kv=13.800 kw=1200.00 pf=0.980 model=1 daily=CurvaEV_EV_8
New Load.EV_9 bus1=b16 phases=3 conn=wye kv=13.800 kw=2400.00 pf=0.980 model=1 daily=CurvaEV_EV_9
New Load.EV_10 bus1=b7 phases=3 conn=wye kv=13.800 kw=2400.00 pf=0.980 model=1 daily=CurvaEV_EV_10
